// -*- C++ -*-
// File generated by PyFoam - sorry for the ugliness

FoamFile
{
 class volScalarField;
 format ascii;
 object p;
 version 2.0;
}

dimensions [ 0 2 -2 0 0 0 0 ];

internalField uniform 0;

boundaryField
{
  Ambient
  {
    type fixedValue;
    value uniform 0;
  }
  Entrainment
  {
    type fixedValue;
    value uniform 0;
  }
  ImpingedWall
  {
    type zeroGradient;
    value uniform 0;
  }
  oldInternalFaces
  {
    type zeroGradient;
  }
  Inlet
  {
    type cyclic;
  }
  Outlet
  {
    type cyclic;
  }
  ExtPipeWall
  {
    type zeroGradient;
    value uniform 0;
  }
  Wedge1
  {
    type wedge;
  }
  Wedge2
  {
    type wedge;
  }
  Symm
  {
    type symmetryPlane;
  }
  mappedInlet
  {
    type zeroGradient;
  }
}

